/*--------------------------------*- C++ -*----------------------------------*\
| =========                 |                                                 |
| \      /  F ield         | OpenFOAM: The Open Source CFD Toolbox           |
|  \    /   O peration     |                                                 |
|   \  /    A nd           |                                                 |
|    \/     M anipulation  |                                                 |
\*---------------------------------------------------------------------------*/
FoamFile
{
    version     2.0;
    format      ascii;
    class       dictionary;
    object      blockMeshDict;
}
// Generated by openfoam_automation.py

scale   1;

vertices
(
    (-0.130000  -0.020000  -0.020000)  // 0
    (0.130000  -0.020000  -0.020000)  // 1
    (0.130000  0.120000  -0.020000)  // 2
    (-0.130000  0.120000  -0.020000)  // 3
    (-0.130000  -0.020000  0.120000)  // 4
    (0.130000  -0.020000  0.120000)  // 5
    (0.130000  0.120000  0.120000)  // 6
    (-0.130000  0.120000  0.120000)  // 7
);

blocks
(
    hex (0 1 2 3 4 5 6 7) (52 29 29) simpleGrading (1 1 1)
);

edges
();

boundary
(
    background
    {
        type patch;
        faces
        (
            (3 7 6 2)  // yMax
            (1 5 4 0)  // yMin
            (0 4 7 3)  // xMin
            (2 6 5 1)  // xMax
            (0 3 2 1)  // zMin
            (4 5 6 7)  // zMax
        );
    }
);

mergePatchPairs
();

// ************************************************************************* //
