/*--------------------------------*- C++ -*----------------------------------*\
| =========                 |                                                 |
| \      /  F ield         | OpenFOAM: The Open Source CFD Toolbox           |
|  \    /   O peration     |                                                 |
|   \  /    A nd           |                                                 |
|    \/     M anipulation  |                                                 |
\*---------------------------------------------------------------------------*/
FoamFile
{
    version     2.0;
    format      ascii;
    class       dictionary;
    object      snappyHexMeshDict;
}
// Generated by openfoam_automation.py

castellatedMesh true;
snap            true;
addLayers       false;

geometry
{
    fin_left_y0_z0.stl
    {
        type triSurfaceMesh;
        file "fin_left_y0_z0.stl";
        name fin_left_y0_z0;
    }
    fin_left_y0_z2.stl
    {
        type triSurfaceMesh;
        file "fin_left_y0_z2.stl";
        name fin_left_y0_z2;
    }
    fin_left_y1_z1.stl
    {
        type triSurfaceMesh;
        file "fin_left_y1_z1.stl";
        name fin_left_y1_z1;
    }
    fin_left_y1_z3.stl
    {
        type triSurfaceMesh;
        file "fin_left_y1_z3.stl";
        name fin_left_y1_z3;
    }
    fin_left_y2_z0.stl
    {
        type triSurfaceMesh;
        file "fin_left_y2_z0.stl";
        name fin_left_y2_z0;
    }
    fin_left_y2_z2.stl
    {
        type triSurfaceMesh;
        file "fin_left_y2_z2.stl";
        name fin_left_y2_z2;
    }
    fin_left_y3_z1.stl
    {
        type triSurfaceMesh;
        file "fin_left_y3_z1.stl";
        name fin_left_y3_z1;
    }
    fin_left_y3_z3.stl
    {
        type triSurfaceMesh;
        file "fin_left_y3_z3.stl";
        name fin_left_y3_z3;
    }
    fin_right_y0_z1.stl
    {
        type triSurfaceMesh;
        file "fin_right_y0_z1.stl";
        name fin_right_y0_z1;
    }
    fin_right_y0_z3.stl
    {
        type triSurfaceMesh;
        file "fin_right_y0_z3.stl";
        name fin_right_y0_z3;
    }
    fin_right_y1_z0.stl
    {
        type triSurfaceMesh;
        file "fin_right_y1_z0.stl";
        name fin_right_y1_z0;
    }
    fin_right_y1_z2.stl
    {
        type triSurfaceMesh;
        file "fin_right_y1_z2.stl";
        name fin_right_y1_z2;
    }
    fin_right_y2_z1.stl
    {
        type triSurfaceMesh;
        file "fin_right_y2_z1.stl";
        name fin_right_y2_z1;
    }
    fin_right_y2_z3.stl
    {
        type triSurfaceMesh;
        file "fin_right_y2_z3.stl";
        name fin_right_y2_z3;
    }
    fin_right_y3_z0.stl
    {
        type triSurfaceMesh;
        file "fin_right_y3_z0.stl";
        name fin_right_y3_z0;
    }
    fin_right_y3_z2.stl
    {
        type triSurfaceMesh;
        file "fin_right_y3_z2.stl";
        name fin_right_y3_z2;
    }
    wall_left.stl
    {
        type triSurfaceMesh;
        file "wall_left.stl";
        name wall_left;
    }
    wall_right.stl
    {
        type triSurfaceMesh;
        file "wall_right.stl";
        name wall_right;
    }
}

castellatedMeshControls
{
    maxLocalCells 2000000;
    maxGlobalCells 10000000;
    minRefinementCells 10;
    nCellsBetweenLevels 2;

    features
    (
        { file "fin_left_y0_z0.extendedFeatureEdgeMesh"; level 1; }
        { file "fin_left_y0_z2.extendedFeatureEdgeMesh"; level 1; }
        { file "fin_left_y1_z1.extendedFeatureEdgeMesh"; level 1; }
        { file "fin_left_y1_z3.extendedFeatureEdgeMesh"; level 1; }
        { file "fin_left_y2_z0.extendedFeatureEdgeMesh"; level 1; }
        { file "fin_left_y2_z2.extendedFeatureEdgeMesh"; level 1; }
        { file "fin_left_y3_z1.extendedFeatureEdgeMesh"; level 1; }
        { file "fin_left_y3_z3.extendedFeatureEdgeMesh"; level 1; }
        { file "fin_right_y0_z1.extendedFeatureEdgeMesh"; level 1; }
        { file "fin_right_y0_z3.extendedFeatureEdgeMesh"; level 1; }
        { file "fin_right_y1_z0.extendedFeatureEdgeMesh"; level 1; }
        { file "fin_right_y1_z2.extendedFeatureEdgeMesh"; level 1; }
        { file "fin_right_y2_z1.extendedFeatureEdgeMesh"; level 1; }
        { file "fin_right_y2_z3.extendedFeatureEdgeMesh"; level 1; }
        { file "fin_right_y3_z0.extendedFeatureEdgeMesh"; level 1; }
        { file "fin_right_y3_z2.extendedFeatureEdgeMesh"; level 1; }
        { file "wall_left.extendedFeatureEdgeMesh"; level 1; }
        { file "wall_right.extendedFeatureEdgeMesh"; level 1; }
    );

    refinementSurfaces
    {
    fin_left_y0_z0
    {
        level (1 1);
        patchInfo { type wall; }
    }
    fin_left_y0_z2
    {
        level (1 1);
        patchInfo { type wall; }
    }
    fin_left_y1_z1
    {
        level (1 1);
        patchInfo { type wall; }
    }
    fin_left_y1_z3
    {
        level (1 1);
        patchInfo { type wall; }
    }
    fin_left_y2_z0
    {
        level (1 1);
        patchInfo { type wall; }
    }
    fin_left_y2_z2
    {
        level (1 1);
        patchInfo { type wall; }
    }
    fin_left_y3_z1
    {
        level (1 1);
        patchInfo { type wall; }
    }
    fin_left_y3_z3
    {
        level (1 1);
        patchInfo { type wall; }
    }
    fin_right_y0_z1
    {
        level (1 1);
        patchInfo { type wall; }
    }
    fin_right_y0_z3
    {
        level (1 1);
        patchInfo { type wall; }
    }
    fin_right_y1_z0
    {
        level (1 1);
        patchInfo { type wall; }
    }
    fin_right_y1_z2
    {
        level (1 1);
        patchInfo { type wall; }
    }
    fin_right_y2_z1
    {
        level (1 1);
        patchInfo { type wall; }
    }
    fin_right_y2_z3
    {
        level (1 1);
        patchInfo { type wall; }
    }
    fin_right_y3_z0
    {
        level (1 1);
        patchInfo { type wall; }
    }
    fin_right_y3_z2
    {
        level (1 1);
        patchInfo { type wall; }
    }
    wall_left
    {
        level (1 1);
        patchInfo { type wall; }
    }
    wall_right
    {
        level (1 1);
        patchInfo { type wall; }
    }
    }

    resolveFeatureAngle 30.0;

    refinementRegions
    {
    }

    locationInMesh (0.0000000000 0.0250000000 0.0250000000);
    allowFreeStandingZoneFaces true;
}

snapControls
{
    nSmoothPatch 3;
    tolerance 2.0;
    nSolveIter 30;
    nRelaxIter 5;
    nFeatureSnapIter 15;
    implicitFeatureSnap false;
    explicitFeatureSnap true;
    multiRegionFeatureSnap true;

}

addLayersControls
{
}

meshQualityControls
{
    maxNonOrtho 65;
    maxBoundarySkewness 20;
    maxInternalSkewness 4;
    maxConcave 80;
    minVol 1e-13;
    minTetQuality 1e-9;
    minArea -1;
    minTwist 0.02;
    minDeterminant 0.001;
    minFaceWeight 0.02;
    minVolRatio 0.01;
    minTriangleTwist -1;
    nSmoothScale 4;
    errorReduction 0.75;
}

writeFlags
(
    scalarLevels
    layerSets
    layerFields
);

mergeTolerance 1e-6;

// ************************************************************************* //
