/*--------------------------------*- C++ -*----------------------------------*\
| =========                 |                                                 |
| \      /  F ield         | OpenFOAM: The Open Source CFD Toolbox           |
|  \    /   O peration     |                                                 |
|   \  /    A nd           |                                                 |
|    \/     M anipulation  |                                                 |
\*---------------------------------------------------------------------------*/
FoamFile
{
    version     2.0;
    format      ascii;
    class       dictionary;
    location    "system";
    object      surfaceFeaturesDict;
}
// Generated by openfoam_automation.py

surfaces
(
    "fin_left_y0_z0.stl"
    "fin_left_y0_z2.stl"
    "fin_left_y1_z1.stl"
    "fin_left_y1_z3.stl"
    "fin_left_y2_z0.stl"
    "fin_left_y2_z2.stl"
    "fin_left_y3_z1.stl"
    "fin_left_y3_z3.stl"
    "fin_right_y0_z1.stl"
    "fin_right_y0_z3.stl"
    "fin_right_y1_z0.stl"
    "fin_right_y1_z2.stl"
    "fin_right_y2_z1.stl"
    "fin_right_y2_z3.stl"
    "fin_right_y3_z0.stl"
    "fin_right_y3_z2.stl"
    "wall_left.stl"
    "wall_right.stl"
);

// Identify a feature when angle between faces < includedAngle
includedAngle   150.0;

writeObj        yes;

// ************************************************************************* //
