/*--------------------------------*- C++ -*----------------------------------*\
| =========                 |                                                 |
| \      /  F ield         | OpenFOAM: The Open Source CFD Toolbox           |
|  \    /   O peration     |                                                 |
|   \  /    A nd           |                                                 |
|    \/     M anipulation  |                                                 |
\*---------------------------------------------------------------------------*/
FoamFile
{
    version     2.0;
    format      ascii;
    class       dictionary;
    object      surfaceFeatureExtractDict;
}
// Generated by openfoam_automation.py

fin_left_y0_z0.stl
{
    extractionMethod    extractFromSurface;

    extractFromSurfaceCoeffs
    {
        includedAngle   150.0;
    }

    writeObj            yes;
}

fin_left_y0_z2.stl
{
    extractionMethod    extractFromSurface;

    extractFromSurfaceCoeffs
    {
        includedAngle   150.0;
    }

    writeObj            yes;
}

fin_left_y1_z1.stl
{
    extractionMethod    extractFromSurface;

    extractFromSurfaceCoeffs
    {
        includedAngle   150.0;
    }

    writeObj            yes;
}

fin_left_y1_z3.stl
{
    extractionMethod    extractFromSurface;

    extractFromSurfaceCoeffs
    {
        includedAngle   150.0;
    }

    writeObj            yes;
}

fin_left_y2_z0.stl
{
    extractionMethod    extractFromSurface;

    extractFromSurfaceCoeffs
    {
        includedAngle   150.0;
    }

    writeObj            yes;
}

fin_left_y2_z2.stl
{
    extractionMethod    extractFromSurface;

    extractFromSurfaceCoeffs
    {
        includedAngle   150.0;
    }

    writeObj            yes;
}

fin_left_y3_z1.stl
{
    extractionMethod    extractFromSurface;

    extractFromSurfaceCoeffs
    {
        includedAngle   150.0;
    }

    writeObj            yes;
}

fin_left_y3_z3.stl
{
    extractionMethod    extractFromSurface;

    extractFromSurfaceCoeffs
    {
        includedAngle   150.0;
    }

    writeObj            yes;
}

fin_right_y0_z1.stl
{
    extractionMethod    extractFromSurface;

    extractFromSurfaceCoeffs
    {
        includedAngle   150.0;
    }

    writeObj            yes;
}

fin_right_y0_z3.stl
{
    extractionMethod    extractFromSurface;

    extractFromSurfaceCoeffs
    {
        includedAngle   150.0;
    }

    writeObj            yes;
}

fin_right_y1_z0.stl
{
    extractionMethod    extractFromSurface;

    extractFromSurfaceCoeffs
    {
        includedAngle   150.0;
    }

    writeObj            yes;
}

fin_right_y1_z2.stl
{
    extractionMethod    extractFromSurface;

    extractFromSurfaceCoeffs
    {
        includedAngle   150.0;
    }

    writeObj            yes;
}

fin_right_y2_z1.stl
{
    extractionMethod    extractFromSurface;

    extractFromSurfaceCoeffs
    {
        includedAngle   150.0;
    }

    writeObj            yes;
}

fin_right_y2_z3.stl
{
    extractionMethod    extractFromSurface;

    extractFromSurfaceCoeffs
    {
        includedAngle   150.0;
    }

    writeObj            yes;
}

fin_right_y3_z0.stl
{
    extractionMethod    extractFromSurface;

    extractFromSurfaceCoeffs
    {
        includedAngle   150.0;
    }

    writeObj            yes;
}

fin_right_y3_z2.stl
{
    extractionMethod    extractFromSurface;

    extractFromSurfaceCoeffs
    {
        includedAngle   150.0;
    }

    writeObj            yes;
}

wall_left.stl
{
    extractionMethod    extractFromSurface;

    extractFromSurfaceCoeffs
    {
        includedAngle   150.0;
    }

    writeObj            yes;
}

wall_right.stl
{
    extractionMethod    extractFromSurface;

    extractFromSurfaceCoeffs
    {
        includedAngle   150.0;
    }

    writeObj            yes;
}

// ************************************************************************* //
